18
Lattice="15.099991252438835 0.0 0.0 0.0 15.099991252438835 0.0 0.0 0.0 15.099991252438835" Properties=species:S:1:pos:R:3 pbc="T T T"
H        9.70793264       6.95080685       9.12218028
C        8.75989986       7.67952382       7.33625018
C       10.05431785       7.85239938       6.61898573
H        7.54827439       6.57508920      10.33089401
O       10.05918583       8.58252272       5.56702072
C        6.34043134       7.68071383       7.33595326
C        5.04769294       7.85337302       6.61653733
O        5.04401430       8.58306364       5.56421210
O        4.04382003       7.23619215       7.10526479
O       11.05848231       7.23651670       7.10872349
C        8.75521554       7.16944358       8.64530995
H        5.38937001       6.94994139       9.11953743
H        7.54941401       8.36929512       5.68318657
C        7.55033911       7.96837096       6.69378831
C        7.54876061       6.94301771       9.30758709
C        6.34277924       7.16965994       8.64449876
H       10.04618279       9.17016413       4.75800373
H        5.03101127       9.17070504       4.75519511
