18
Lattice="15.099991252438835 0.0 0.0 0.0 15.099991252438835 0.0 0.0 0.0 15.099991252438835" Properties=species:S:1:pos:R:3:momenta:R:3:forces:R:3:charge:R:1 energy=-1059.3133309515088 free_energy=-1059.3133309515088 dipole="-0.8846153237053465 0.7485487542979873 -0.38990882983938624" stress="0.0 0.0 0.0 0.0 0.0 0.0 0.0 0.0 0.0" pbc="T T T"
H        9.70793264       6.95080685       9.12218028      -0.13470074      -0.13679605      -0.22783389      -0.11628180       0.03377310      -0.04667786       0.06813145
C        8.75989986       7.67952382       7.33625018      -1.80540001       0.50651051      -0.41390947      -0.61218292       0.08345296       0.09955011      -0.05103673
C       10.05431785       7.85239938       6.61898573       0.27885603       0.12302455      -0.01922198       3.07828522      -3.51801977       3.90294395       0.57498164
H        7.54827439       6.57508920      10.33089401       0.02826085       0.23136098      -0.16930395      -0.00289685       0.01283003      -0.15468681       0.04749553
O       10.05918583       8.58252272       5.56702072      -0.20750538       0.03317969       1.53353210       0.57774284       0.98222538      -1.60184742      -0.45856642
C        6.34043134       7.68071383       7.33595326       0.34490698      -1.45549272      -0.86956052       0.45681913       0.23323087      -0.18812326      -0.02240604
C        5.04769294       7.85337302       6.61653733       1.00569717       0.14338073      -0.00690255      -2.75257268      -3.47034237       3.97655537       0.57073395
O        5.04401430       8.58306364       5.56421210       1.30930384      -0.97478064      -0.21211892      -0.23384532       0.85003622      -1.37556519      -0.47730025
O        4.04382003       7.23619215       7.10526479      -0.92312568       0.72507795       0.84080072       2.75495470       2.33630389      -2.15788338      -0.56239199
O       11.05848231       7.23651670       7.10872349       1.68818550      -0.23210089      -0.30516587      -3.12255471       2.46866152      -2.23449560      -0.53856667
C        8.75521554       7.16944358       8.64530995      -0.23262141       0.24503068       0.62983677      -0.26506360       0.05272409      -0.15497353       0.01382454
H        5.38937001       6.94994139       9.11953743      -0.21607185      -0.11853001       0.04677641       0.12375693       0.03791768      -0.04085842       0.06739213
H        7.54941401       8.36929512       5.68318657       0.14117600       0.17309178      -0.13293446      -0.12029426      -0.06505352       0.04302411       0.03835115
C        7.55033911       7.96837096       6.69378831      -1.86823992       0.47500748      -0.88015863       0.01118928      -0.21823518       0.45511476      -0.02512088
C        7.54876061       6.94301771       9.30758709       0.34984490      -0.08747730      -0.71690697      -0.00597784       0.11659619      -0.35295634      -0.02198188
C        6.34277924       7.16965994       8.64449876       0.71457125       0.02292322       1.02832619       0.22900402       0.05698493      -0.17296773       0.00880900
H        9.20652115       8.98846145       5.35446876      -0.19924744      -0.19070073      -0.10848624       0.00146339       0.00588530       0.00458359       0.37011285
H        4.15070164       8.60157896       5.17667327      -0.27389011       0.51729077      -0.01676875      -0.00154553       0.00102867      -0.00073635       0.39753863
18
Lattice="15.099991252438835 0.0 0.0 0.0 15.099991252438835 0.0 0.0 0.0 15.099991252438835" Properties=species:S:1:pos:R:3:momenta:R:3:forces:R:3:charge:R:1 energy=-1058.757969870005 free_energy=-1058.757969870005 dipole="-0.8599182270025634 0.46065474293328723 0.14905716344934833" stress="0.0 0.0 0.0 0.0 0.0 0.0 0.0 0.0 0.0" pbc="T T T"
H        9.69298092       6.90249010       9.05098041      -0.36552593       0.20413295      -0.14274801      -0.09371759       0.32024198      -0.01380325       0.06335991
C        8.67043140       7.71570605       7.33061789       0.10936566       0.21788100      -0.02827254       2.76464380      -0.62666292      -0.44910565      -0.06645625
C       10.14254889       7.78032463       6.72481777      -0.22635331      -0.43026805       0.94711162      -5.24485172       3.38792181      -2.91553521       0.58759733
H        7.51985889       6.75887244      10.32599807      -0.14712959       0.18484646      -0.13943347       0.21541763      -0.53777405       0.45143147       0.04521344
O       10.06317058       8.62929343       5.61269226       0.65032164       0.70340381       0.51469852      -0.65647960      -0.50569080       0.30456553      -0.52531452
C        6.35139019       7.55955587       7.28781552      -0.17824035      -1.70471590       0.13497067      -0.77373976       0.65135375       1.22886776      -0.03268504
C        5.01124972       7.76881114       6.72546231      -0.56076517      -0.93645606       1.38143122       4.34715076       2.53407559      -4.00440852       0.58995415
O        5.06839337       8.52720949       5.53218799       0.20338202      -1.22614077      -0.02480784      -0.60801735       0.21613896       1.11069337      -0.55657357
O        4.04019628       7.32866176       7.11802755      -0.53882952       1.73109973       0.15658276      -5.34126022      -1.98991081       2.27487456      -0.47527116
O       11.12058640       7.26542535       7.03324243       1.57552290       0.43227247      -1.17102405       2.55420923      -1.68817780       1.55662794      -0.44655885
C        8.73913336       7.20929253       8.62893801      -0.09939569       0.47725881      -1.04318997      -0.40534355      -0.35477778      -0.89741791      -0.00019650
H        5.40558072       6.94111300       9.13238515      -0.20245896       0.09331127       0.21869243       0.11282538       0.11051655      -0.00971157       0.06249702
H        7.41223411       8.47820042       5.65037600      -0.35966981       0.16863047      -0.28870932       0.13791036      -0.40409372       0.23120989       0.05766852
C        7.47700871       7.98055984       6.62044634       0.56703607      -0.53386194      -0.46033731       1.33171071      -0.38496539       1.01420385      -0.00117610
C        7.54801333       6.93968405       9.26899054      -0.09185877       0.14299266       0.70319380       0.10638633       0.59112992       1.39669469      -0.01593680
C        6.35679045       7.17390468       8.66225052       0.09628777       0.13492885      -0.98226074      -0.55313674      -0.29424803      -1.93163576      -0.00537618
H        9.12037474       8.82909905       5.34320462      -0.13403452      -0.07939572       0.12133452       1.39846434      -0.19309696       0.46684426       0.34720995
H        4.20655315       8.98187961       5.34959934      -0.29765443       0.42007996       0.10276772       0.70782800      -0.83198029       0.18560456       0.37204466
18
Lattice="15.099991252438835 0.0 0.0 0.0 15.099991252438835 0.0 0.0 0.0 15.099991252438835" Properties=species:S:1:pos:R:3:momenta:R:3:forces:R:3:charge:R:1 energy=-1058.5671605443492 free_energy=-1058.5671605443492 dipole="-0.9371028354763545 0.7127307894750377 0.08834742488157839" stress="0.0 0.0 0.0 0.0 0.0 0.0 0.0 0.0 0.0" pbc="T T T"
H        9.66181794       7.15994978       9.10041672      -0.33659471       0.35923708      -0.17593250      -0.16025056      -0.25135573      -0.17107168       0.06301750
C        8.75654887       7.69172282       7.27293693       1.25148884      -0.85113570      -1.08198189      -1.89931659      -0.86821545       0.44504807      -0.04674511
C       10.07151327       7.80856515       6.69116240       0.84928210       0.36444796      -1.16229221       5.13518227      -0.45045753      -0.54627337       0.56738193
H        7.48418089       6.72778650      10.37286171       0.11320667      -0.10082837      -0.12794508       0.27857683      -0.01195283       0.25132238       0.05845117
O       10.09629848       8.65154664       5.65585911       0.17763094      -0.18109606       0.82461226      -2.15003323       0.51018468      -0.70780236      -0.47546754
C        6.36170759       7.46655574       7.26407250       0.44495442      -0.43109786      -1.16871338       0.17889974       1.31675441      -0.75100356      -0.02067320
C        5.04545919       7.77655007       6.70074962      -0.54717083       0.12866736      -0.65830162      -4.59820301      -1.93000176       1.21581113       0.56104272
O        5.08433933       8.47035535       5.57297666       1.01069885      -0.46169144       0.80408873      -1.27721878       1.57010901       0.10523863      -0.49766848
O        3.92311649       7.40021723       7.20301075      -1.27081212       1.36429861       1.77511921       4.55614449       1.72831788      -1.67020022      -0.54415314
O       11.16938780       7.28582755       7.00079221      -1.17975193       0.92782151      -0.33058937      -3.86486327       0.96829328       0.09448475      -0.51249832
C        8.69910286       7.21675125       8.58007580      -0.46978032      -0.28933358       0.56482552       0.17714080      -0.39987387       1.88332680       0.01056975
H        5.38466231       7.21791941       9.10633321      -0.32226801       0.25566659      -0.08519199       0.06745706      -0.51508947      -0.08213695       0.06791204
H        7.27213720       8.37898229       5.67535310       0.13681200      -0.12613361      -0.21457601       0.89122191      -0.06735476      -0.56665235       0.06374948
C        7.52790122       7.89051194       6.59927050       0.30990164      -1.62114110       0.58074875      -0.07725431      -0.71739538       0.88560301      -0.02066384
C        7.53139950       6.98307399       9.33383406      -0.22105269       0.48758698       0.49159261      -0.25634802       0.79875373      -2.41328637      -0.02263714
C        6.34471139       7.17586454       8.59089992       0.21077028      -0.12892198       0.06732056       0.49950382      -0.74037455       2.65349920       0.00950804
H        9.12961053       8.86942321       5.48162139       0.10294937       0.22187561      -0.18749987       1.56886061       0.16704517      -0.22188624       0.34682787
H        4.25248305       9.03903870       5.55847436      -0.26026451       0.08177801       0.08471628       0.93050022      -1.10738685      -0.40402086       0.39204627
18
Lattice="15.099991252438835 0.0 0.0 0.0 15.099991252438835 0.0 0.0 0.0 15.099991252438835" Properties=species:S:1:pos:R:3:momenta:R:3:forces:R:3:charge:R:1 energy=-1058.8513299436333 free_energy=-1058.8513299436333 dipole="-0.923704707597879 0.5876377376546623 -0.2967228033504161" stress="0.0 0.0 0.0 0.0 0.0 0.0 0.0 0.0 0.0" pbc="T T T"
H        9.68452534       7.27018249       9.16530607      -0.29692591      -0.35285257      -0.00801675      -0.82402019      -0.51404844      -0.42900080       0.05145456
C        8.76806970       7.59168438       7.23857390      -0.14863672      -1.81486546       0.74760198      -0.06574727      -0.51342424       1.93237802      -0.07357116
C       10.14524853       7.83559940       6.60863843      -1.14645487       0.68453459      -0.81018061      -3.64290767       0.12122648       1.00120657       0.60926655
H        7.67152069       6.69755027      10.34074331       0.07940611       0.01116073      -0.15296388      -0.62302148       0.20809361       0.04690503       0.04538883
O       10.09749722       8.68104435       5.63155749      -0.13705790       1.42193372      -1.37758335      -0.25003444       2.16442135      -2.67568729      -0.48898279
C        6.34837561       7.45909196       7.23281863      -0.79969980       0.01178793       0.29762837      -0.66132822       0.06942411       1.24445111      -0.04790441
C        4.91126396       7.72355922       6.70858043      -0.83699149      -0.66818553       0.37052486       7.34331513       1.81206540      -2.38267386       0.59423461
O        5.09727115       8.49340777       5.60161741      -0.12003655       0.92212693       0.18465061      -3.84640671       0.75294619      -0.20131305      -0.51855934
O        3.94310806       7.51155216       7.27207757       0.44408112       1.76001641       0.92169853      -4.68299719      -1.04004139       1.98489541      -0.48129610
O       11.10962780       7.33191906       7.03515872       1.09318745      -0.04232870       1.46367306       2.28015712      -0.98731261       0.65509555      -0.49593862
C        8.71323125       7.20591718       8.61514028       1.17209257       0.68571336      -0.06431117       1.51993234       0.80581206      -0.71387870       0.00059900
H        5.35052813       7.17043207       9.02923976      -0.21579306      -0.32497033       0.25168844       0.06854654      -0.42948680       0.60301189       0.05961125
H        7.60627674       8.08493200       5.54287784       0.22929229      -0.46549888      -0.13987892      -0.42687189      -0.27370740       0.45161713       0.03297418
C        7.55599265       7.75367798       6.59690749       0.39509457      -1.77758020      -0.53121105      -0.28318434      -0.10839195      -1.32103447      -0.00214510
C        7.53007643       7.00289116       9.30839732       0.25020922       0.04163546      -0.19180115       0.90547322      -0.05889900      -0.13168882      -0.01987446
C        6.35077162       7.16759606       8.62171578       0.09659090       0.01008702      -0.56534187      -0.45620900       0.03865506      -1.19381522      -0.00871351
H        9.26168332       9.12629684       5.28089883       0.20903181       0.03288139       0.00393856       1.18141643      -1.09292770       1.04674887       0.37196929
H        4.14310916       8.89484935       5.41117883      -0.26738973      -0.13559586      -0.40011568       2.46388760      -0.95440474       0.08278262       0.37148722
18
Lattice="15.099991252438835 0.0 0.0 0.0 15.099991252438835 0.0 0.0 0.0 15.099991252438835" Properties=species:S:1:pos:R:3:momenta:R:3:forces:R:3:charge:R:1 energy=-1058.606090598169 free_energy=-1058.606090598169 dipole="-0.8552937895747368 0.15354234785491053 -0.28499167299051603" stress="0.0 0.0 0.0 0.0 0.0 0.0 0.0 0.0 0.0" pbc="T T T"
H        9.65207392       6.93637649       9.22590524      -0.08485316      -0.04397533      -0.21750996       0.03024213       0.63104802      -0.51394133       0.06864737
C        8.77606712       7.46890255       7.29243081       0.26455325      -0.82070162      -0.27928390      -0.46297337       1.79059817      -3.09884033      -0.03172182
C       10.09089787       7.84742772       6.62009322       0.75102099      -0.66671359       0.67540328       2.50388789      -0.77313912       0.11537246       0.55944835
H        7.43375103       6.74279138      10.31793403      -0.34028209       0.23573552      -0.07207536       0.62384881       0.07574153      -0.44386742       0.04645302
O       10.11256187       8.77436341       5.54002289      -0.19373003       1.06853155      -0.71696616      -1.72161478      -1.75566400       2.54691705      -0.49529851
C        6.31428850       7.47282975       7.27227912       0.26079463       0.45779652      -0.61077715       1.75721121       0.12828995      -2.19303983      -0.01414864
C        5.00151720       7.75232675       6.68745336       0.77765961       0.98613933       0.32073127      -4.03483400       1.21042801       2.02427037       0.56704196
O        5.03705781       8.55752147       5.61075913      -1.14342893       0.68488178      -0.00276129      -1.82923285      -0.78666050      -1.76783314      -0.50235000
O        3.93174211       7.57912071       7.34774138       0.86376091       0.85908942       0.41207109       3.35443366      -0.02201261      -2.59125948      -0.53914841
O       11.12117118       7.34065669       7.06784714      -1.42876128       1.19678293      -0.68432525      -2.10476566       1.51526493      -1.41482152      -0.48618367
C        8.77048807       7.22081377       8.63828951       0.47880956      -0.20792183       1.43983760       0.04897671      -1.11704168       1.40944186       0.01237268
H        5.47785871       6.86600462       9.12030824      -0.10144638      -0.23218221       0.16337931      -1.47847144       0.03931225       0.64353648       0.07271748
H        7.53513679       7.63964441       5.44082986      -0.25926984      -0.36233672       0.03958349       0.17814291       0.33558670       0.97956863       0.05171818
C        7.56895719       7.60882934       6.55260109      -0.52856662      -2.36727661      -0.02223250      -0.95866335      -0.48917396       1.03533102      -0.02641036
C        7.55921163       7.01328780       9.25728295      -0.07555897      -0.00915391      -0.41686013      -1.33005947      -0.14896669       0.86978421      -0.02307750
C        6.33083605       7.15950552       8.59586223       0.68315925      -0.28229521      -0.04498757       2.18845795      -0.37814919       0.64742079       0.00612017
H        9.17648722       9.09870396       5.47471845       0.20851752      -0.20210963       0.21043300       1.03596557      -0.09678433      -0.28013011       0.34994751
H        4.14322479       8.61355064       5.05000601      -0.13237843      -0.29429037      -0.19365975       2.19944809      -0.15867750       2.03209029       0.38387219
18
Lattice="15.099991252438835 0.0 0.0 0.0 15.099991252438835 0.0 0.0 0.0 15.099991252438835" Properties=species:S:1:pos:R:3:momenta:R:3:forces:R:3:charge:R:1 energy=-1058.729222008883 free_energy=-1058.729222008883 dipole="-1.0152745374695311 0.24578062789336297 -0.19175819650884265" stress="0.0 0.0 0.0 0.0 0.0 0.0 0.0 0.0 0.0" pbc="T T T"
H        9.84043691       7.12646451       9.08413162      -0.22073422       0.38702556      -0.13403308      -1.67682568       0.19972688       0.02736868       0.07077560
C        8.75918840       7.44184903       7.22528731      -0.69386295      -0.32116990      -0.38364147      -0.16905873      -0.14581659       1.94029859      -0.06011966
C       10.06704909       7.84967084       6.61162234      -1.54862684       0.93197101      -1.25542922       0.83580044      -0.62460097      -0.26656932       0.57600381
H        7.48386568       6.96897484      10.39282559       0.32726957       0.02103571       0.11688662       0.12470667      -0.50368550      -0.99387562       0.04177755
O       10.09972868       8.74973764       5.58104905      -0.50052463      -1.20710085       1.89048860      -0.32658858      -1.02257264       1.24906272      -0.49383799
C        6.35485712       7.48346135       7.22411035       0.03795882      -0.26872589       0.11607801      -1.44435055      -0.84494343       2.07468620      -0.03696206
C        4.99497396       7.88068148       6.74575150       0.37416077       2.08774562      -0.01435335       3.68824237       0.71193837      -2.57975647       0.59392610
O        4.98745916       8.58975955       5.59665079      -0.59647424      -0.23570957       0.03219132      -2.17735618      -0.62246387      -1.24839713      -0.51900806
O        4.03725755       7.63178791       7.33692557       0.90965483       0.55427821       0.30422884      -4.11664187      -1.03406050       2.25341950      -0.50102818
O       11.08120857       7.37809438       7.05106003       0.65428177       0.10445752       0.53134157       0.12535674       0.23580082      -0.13764733      -0.49526696
C        8.78668173       7.19072703       8.67291012       0.14305030      -0.40385665      -1.11501550       0.46431420       0.30423575      -2.69792496       0.00201266
H        5.46537861       6.98540083       9.07562507      -0.08888911       0.48465272      -0.11242778      -1.77869663      -0.04631167       1.05273748       0.06680335
H        7.45761784       7.51249278       5.47166478       0.17629453       0.06638317      -0.07667835       0.43688948       0.25218116       0.22465570       0.04287764
C        7.52973014       7.42779537       6.56428285       0.17815261      -1.78763469      -0.40969935       1.34465404       1.13664237      -1.95710216      -0.00495626
C        7.53557937       7.00103758       9.27376985       0.13036796      -0.06831990       0.79653914       1.97243271       0.22142565       2.00917240      -0.01685251
C        6.36826520       7.11361516       8.59157381       0.38924584      -0.70026772      -0.53162244       0.78837083       0.84975057      -1.69061162      -0.00314241
H        9.22280578       9.11477950       5.50453311       0.34782857       0.14092748      -0.02950001      -0.59296753       0.46997332      -0.45660756       0.35874171
H        4.01392201       8.52507789       5.19822147      -0.01915355       0.21430817       0.27464646       2.50171828       0.46278031       1.19709090       0.37825568
18
Lattice="15.099991252438835 0.0 0.0 0.0 15.099991252438835 0.0 0.0 0.0 15.099991252438835" Properties=species:S:1:pos:R:3:momenta:R:3:forces:R:3:charge:R:1 energy=-1058.3376789154138 free_energy=-1058.3376789154138 dipole="-0.7429883764252395 0.6525079470957981 -0.33006993908303167" stress="0.0 0.0 0.0 0.0 0.0 0.0 0.0 0.0 0.0" pbc="T T T"
H        9.61115174       7.44374921       9.21049331      -0.25153473       0.06925585      -0.14266147      -0.20062016      -0.71279622      -1.42653066       0.05635807
C        8.71147450       7.40606803       7.22584761       0.24545792      -0.50462543      -0.39732304       1.86909422       0.41956793      -4.00897020      -0.04117807
C       10.05090702       7.80060402       6.57656659       0.28897575      -1.48245781       0.61640657      -0.94749212      -0.32380451       1.64382152       0.59369928
H        7.60839037       6.83767174      10.43181769       0.09116853      -0.25831498      -0.14256400       0.17537072       0.23559014      -1.36167261       0.04841130
O       10.07329210       8.73642923       5.68016494      -0.67612876       0.85959036       0.81277780       0.57463162       0.88007878      -1.49996596      -0.48423657
C        6.35335708       7.44294798       7.23882000       0.49822536      -0.70607576      -0.55622785       0.95705155      -0.08323517      -0.47834913      -0.02463333
C        5.06513553       7.97525720       6.73476790       0.32079629      -0.24140428       0.36303796      -2.87209963      -3.07510665       2.25219678       0.56792190
O        4.95107268       8.55984807       5.57683165      -0.99046673      -0.21138209      -0.28999280      -1.02419408       1.15688419      -0.59649193      -0.48427776
O        4.04251805       7.65511015       7.39639465       0.39246270       0.42058315       0.95730581       1.96931979       1.46513469      -1.53241837      -0.56156503
O       11.07015323       7.41555129       7.04352586      -0.70750779       1.21248663      -0.35777144       1.28717243      -1.05995643       0.50177133      -0.50289175
C        8.75495387       7.16947537       8.52268518      -0.60680303      -0.17340279      -0.63858456       0.47333428       0.39195352       6.35730213       0.00348465
H        5.50858707       7.31205115       9.10610591       0.38373441      -0.01884347       0.03625978      -2.62423793       0.08401087       1.69508846       0.07195378
H        7.52025204       7.60638569       5.39966056      -0.04258968       0.03663191      -0.17163414       0.19413120      -0.29542710       1.00897368       0.04114816
C        7.56226697       7.37240328       6.49360448      -0.16448679       0.33981782      -1.05698731      -2.26343749       1.28648711      -0.87463599      -0.01854052
C        7.61665599       7.00478179       9.32097637       1.13929630       0.05667460      -0.57316271      -2.40487060      -0.49152402      -1.41791657      -0.02002529
C        6.35747560       7.10727981       8.59566605      -0.39950521       0.43155624       1.34465156       4.41469541       0.39001549      -0.09636744      -0.01074728
H        9.31160455       9.22710759       5.41196527       0.09137267      -0.00890011      -0.05495566      -1.04775134       0.18613854      -0.12535689       0.37284056
H        3.97309002       8.81938622       5.49518027       0.38753279       0.17881016       0.25142551       1.46990211      -0.45401118      -0.04047817       0.39227792
18
Lattice="15.099991252438835 0.0 0.0 0.0 15.099991252438835 0.0 0.0 0.0 15.099991252438835" Properties=species:S:1:pos:R:3:momenta:R:3:forces:R:3:charge:R:1 energy=-1058.686106571217 free_energy=-1058.686106571217 dipole="-0.9974320986276004 0.4137534522400327 -0.0892688869258048" stress="0.0 0.0 0.0 0.0 0.0 0.0 0.0 0.0 0.0" pbc="T T T"
H        9.82792800       7.29325356       8.92151965       0.09914400      -0.36601633      -0.07978862      -1.97018420      -0.52355422       0.11486770       0.07021737
C        8.74241001       7.38440750       7.12449507      -0.33728457      -0.39193918      -0.81095605      -3.17963193      -0.82489242       1.59017383      -0.05510849
C       10.00148622       7.74811933       6.60883067      -0.59210063      -0.09496449       0.06311343       3.26256943       2.04587114      -0.87830334       0.58119078
H        7.67624919       6.66295544      10.33936762       0.02215943      -0.06264733      -0.03209582      -0.14824285       0.51432221      -0.88260774       0.04655111
O       10.02216774       8.78494388       5.70953173      -0.58473409       0.37600704       0.20035319       0.56854545      -0.74892738      -0.01893548      -0.51389366
C        6.40520099       7.40612484       7.23889273       0.12146055      -0.10829844       0.17441545      -1.62592322       0.79645724      -0.19008299      -0.03769110
C        5.03039687       7.89071961       6.76870808      -0.31249598      -1.47859337      -0.06940475       2.84789456      -0.10412124      -2.06923032       0.58321222
O        4.92955799       8.56300037       5.58382667      -0.25379865       0.19613771       0.55530311       0.53535564      -0.07284790       0.83696869      -0.52494499
O        4.09657359       7.70105140       7.43441622       0.20575951       0.74332061       1.17771897      -3.29480757      -0.29240766       2.11936251      -0.50399386
O       11.07773350       7.41848779       7.05338085       0.52510233      -0.77797072       0.04889558      -0.65486760      -0.56443398      -0.18209644      -0.50491638
C        8.74012904       7.18365631       8.55046794       1.10021330       0.74388118      -0.24830009       3.34267562       0.38356578      -2.23653126       0.00150761
H        5.55450912       7.25985711       9.18855265       0.45647039      -0.23397983      -0.21962152      -1.68973220      -0.14058234       0.82316425       0.07056372
H        7.51028509       7.55201567       5.31089208      -0.12972096      -0.00804563      -0.14499028      -0.30203100       0.00338163       0.63241926       0.05696678
C        7.50357184       7.43352080       6.40308691      -0.40113526       1.30658931      -0.57709972       1.69964893       0.06215916       1.26499114      -0.00684404
C        7.60349106       6.96356802       9.26383200      -0.72467434      -0.54592695      -0.26966330       1.68032160      -0.82720495       2.61959635      -0.00604065
C        6.43508894       7.15588230       8.65265104       0.60386093       0.76778890      -0.07046258      -0.44662001       0.57523767      -3.30519382       0.00102516
H        9.22151192       9.22958469       5.46383561      -0.34118305      -0.01492892       0.18174523      -0.85788417       0.07289123      -0.06556539       0.35900935
H        4.05945015       9.01139051       5.59522773       0.54295711      -0.05041356       0.12083776       0.23291352      -0.35491399      -0.17299694       0.38318906
18
Lattice="15.099991252438835 0.0 0.0 0.0 15.099991252438835 0.0 0.0 0.0 15.099991252438835" Properties=species:S:1:pos:R:3:momenta:R:3:forces:R:3:charge:R:1 energy=-1058.8149557009747 free_energy=-1058.8149557009747 dipole="-0.7638265332735567 0.2820655449087154 -0.16626384939682787" stress="0.0 0.0 0.0 0.0 0.0 0.0 0.0 0.0 0.0" pbc="T T T"
H        9.82342628       6.90580404       8.97515294       0.01971032      -0.07742591       0.07160461      -1.59528110       0.99146789      -1.12125211       0.06657615
C        8.66200300       7.37459580       7.11509423      -0.25937994       0.18626638       0.40280193       3.48022129       0.80885442       0.01135188      -0.05644196
C       10.06124040       7.78830655       6.57784837       1.46298993       0.65553814      -0.91059865      -0.77302032      -0.28615592       0.30942629       0.58197398
H        7.65876106       6.64636298      10.32557599       0.08230152       0.04597932       0.13852160       0.17293077       0.23200105      -0.59355237       0.05114830
O        9.96028158       8.78755375       5.69574891      -1.16665249      -0.30640740      -0.51372102       0.11849979      -0.22085076       0.01574770      -0.48488674
C        6.36185383       7.42962677       7.22827798      -0.55370607       0.45519432      -0.61225821       0.25812836      -0.26884175      -0.26537635      -0.01891627
C        5.03786528       7.78729459       6.73222025      -0.57911002      -0.96167302       0.39047667      -2.39622464       1.43127084       2.45422366       0.57083942
O        4.96257017       8.53985673       5.63741735       0.82004556      -0.24714923       0.65534190       0.83890588      -0.38976216      -0.52627714      -0.50912611
O        4.08179838       7.76484748       7.51898666      -0.10325364       0.94539062       1.02302851       0.92797247      -0.41388583      -1.53190469      -0.54498698
O       11.07965163       7.37487821       7.04307795      -0.72344709      -0.91320144      -0.49781944       0.06309073       0.01101749      -0.42343433      -0.48955674
C        8.80605400       7.19811985       8.49411221      -0.08624413      -0.47163991      -0.28674940       0.20189541      -2.25332700       1.81502078       0.00133314
H        5.57309542       7.09272005       9.17288031       0.33838842      -0.05526946      -0.28578931      -1.32727882       0.04676544       0.55244921       0.07012483
H        7.34984613       7.55742130       5.30844234      -0.07905065       0.11343502       0.15204016       0.54030159       0.14214706       1.15334242       0.05527041
C        7.49950648       7.50908224       6.41880528      -0.38957008       0.52744515       0.61171323      -1.25025484      -0.26392700      -0.50101989      -0.02321566
C        7.66524745       6.93238042       9.26470453       1.70166181       0.11235066      -0.40200226      -0.55780479       1.03546547      -1.14957044      -0.01979746
C        6.44227522       7.21028266       8.59979284      -0.59225768       0.47239714      -0.08150107       1.90871225      -0.94187039       0.34427345      -0.00009331
H        9.01771938       8.98911973       5.63223639      -0.34637304      -0.21970181       0.10043193      -0.09307434       0.37052377      -0.41641013       0.35816522
H        4.17908746       9.09489334       5.70569804       0.45394726      -0.26152857       0.04447880      -0.51771970      -0.03089262      -0.12703794       0.39158977
18
Lattice="15.099991252438835 0.0 0.0 0.0 15.099991252438835 0.0 0.0 0.0 15.099991252438835" Properties=species:S:1:pos:R:3:momenta:R:3:forces:R:3:charge:R:1 energy=-1058.8256203481365 free_energy=-1058.8256203481365 dipole="-0.9001375088021831 0.24698932831200254 -0.22849810899864284" stress="0.0 0.0 0.0 0.0 0.0 0.0 0.0 0.0 0.0" pbc="T T T"
H        9.86613679       6.99868587       8.90206193       0.23544210       0.12350871      -0.03509817      -1.84281231       0.15472859      -0.56284319       0.06132278
C        8.72677704       7.43451984       7.11356568       1.09650374       0.93985060      -0.51165882      -0.47597250      -0.29286246      -0.01110133      -0.07118506
C       10.08527456       7.79461156       6.52781167      -1.25168401      -0.37636914       0.26235561      -1.27602647      -0.76522686       1.49527400       0.59189566
H        7.72006448       6.75320932      10.27558086       0.13135805       0.13347788       0.10659201       0.14593579      -0.02459139      -0.09964626       0.04593170
O        9.88719442       8.77450655       5.66915764      -0.67969882      -0.23957050      -0.52517872       0.98034499       0.49342023      -0.95708318      -0.48230493
C        6.32214727       7.42590543       7.21960592      -0.43463714      -0.34081402       0.72301081       0.95068111      -0.77943889       1.71469493      -0.02955704
C        4.96055989       7.77178222       6.79807149      -0.02797219       0.39563426       0.85081651       2.93869782       1.17676233      -0.50495051       0.58595884
O        5.04393480       8.49995505       5.67324474       0.82333810      -0.82033489       0.64017471       0.18248529      -0.95194647      -0.13313693      -0.52288745
O        4.06163883       7.79388419       7.55659779      -1.03794140       0.15818121       0.81583272      -2.50885836      -0.32592224       0.64524833      -0.51269730
O       11.08819103       7.33707737       7.00795152       0.60619318      -0.05412771      -1.07441479      -0.08517825       0.71511142      -1.20272293      -0.49856130
C        8.79491505       7.11995996       8.47593895       0.74316305      -1.29713667      -0.88849381       4.43606730       0.09605262      -1.09195952       0.01009667
H        5.54701654       7.01686124       9.10735648       0.54152630       0.06980968      -0.15931405      -0.70141946       0.09975567       0.87587562       0.06603202
H        7.44113131       7.70000976       5.35555378       0.21258300       0.26128998       0.20268606      -0.09381938       0.00312384       1.11534581       0.04296141
C        7.47233394       7.57147126       6.47166671       0.02362341       0.86619162       0.51475515       1.50448407      -0.15059707      -1.06252582      -0.01664655
C        7.71127532       6.97965944       9.21195203      -1.16328124       0.79002030      -0.75634510      -3.59156905      -0.00015558       1.65135990      -0.01500068
C        6.46064324       7.20736262       8.61064254      -0.06723102      -0.53096268       0.28308212       0.82739317      -0.79914220      -1.03764799      -0.00876953
H        8.92906912       8.90946295       5.55168293      -0.11932953       0.14592867      -0.30616741       0.27866149       0.15878955      -0.11468395       0.36302559
H        4.22794497       8.95566711       5.71453923       0.36804443      -0.22457731      -0.14263483      -1.66909525       1.19213892      -0.71949697       0.39038517
18
Lattice="15.099991252438835 0.0 0.0 0.0 15.099991252438835 0.0 0.0 0.0 15.099991252438835" Properties=species:S:1:pos:R:3:momenta:R:3:forces:R:3:charge:R:1 energy=-1058.759206171397 free_energy=-1058.759206171397 dipole="-0.8123526637687845 0.291129689089371 -0.2152873656274949" stress="0.0 0.0 0.0 0.0 0.0 0.0 0.0 0.0 0.0" pbc="T T T"
H        9.94036115       7.02610847       8.91593360       0.19587674      -0.15422819       0.08184425      -2.20488890      -0.34284455      -0.88302753       0.07045045
C        8.75128339       7.46350751       7.13173262      -0.47508533      -0.48561432       0.63927773      -0.26416936      -1.12018020       0.09120529      -0.04220674
C       10.03274344       7.77792546       6.56364610       0.67927951       0.32332360       0.06713085       1.01398771       1.64827724      -1.87835655       0.58529248
H        7.69776036       6.79748059      10.26153001      -0.12660856       0.05141968       0.07924009       0.03287893       0.08671869      -0.32116114       0.04425074
O        9.88674508       8.75965538       5.62175629       0.80562541      -0.26481688      -1.14365261       0.10764999      -0.00384763      -0.49385290      -0.51013251
C        6.35761923       7.40481788       7.26752271       0.58215831      -0.09523736       0.08275769      -0.74002287       0.75949566      -1.44350032      -0.02036773
C        4.99220488       7.83569666       6.89088136      -0.07974537       1.10775765       1.63612199      -2.11533574       0.62692668      -0.11749407       0.57672952
O        5.04677439       8.44807479       5.68475909      -0.37835063      -0.55857721      -0.07317272       2.48276300      -1.88543222       1.02220434      -0.52548135
O        3.97560028       7.79240779       7.59164128      -0.82779651      -0.29276905      -0.23866035       2.47668473       0.01827723      -1.70841059      -0.51996956
O       11.11095130       7.39449006       6.91329408      -0.44268143       1.52904511      -2.04063028      -0.30390004      -0.07926468      -0.10367839      -0.49267935
C        8.88151308       7.02288394       8.41591121      -0.04986238      -0.93197602       0.44372687      -1.11257924       0.67721949       3.66437957       0.00443869
H        5.55505728       7.04786447       9.22766426       0.33450772       0.14383505      -0.21216490      -0.06708140       0.12362193      -0.33809296       0.06776842
H        7.40455900       7.93321716       5.43649076      -0.22093513       0.16015448       0.18100532       0.26602040      -0.38241126       1.43592037       0.04590183
C        7.51711879       7.62969405       6.52842017       0.38290850       0.85487075       0.52498788      -0.96451538       0.28759254      -1.68458951      -0.00750758
C        7.64080213       7.00853762       9.18799012       0.84232021       0.12827730      -0.05156233       3.36894307      -1.07227199       0.37897823      -0.02304967
C        6.43173404       7.13875174       8.58632857      -1.35145300      -1.38638721       0.53971978       0.07995342      -0.72704204       2.58182291       0.00280199
H        8.95893381       8.94698247       5.34335023      -0.10216701       0.01979919      -0.19245454       0.81459784      -0.21966478       0.40867838       0.35296238
H        4.34319420       8.96988332       5.44155466       0.23200894      -0.14887658      -0.32351471      -2.87098616       1.60482987      -0.61102511       0.39079799
